@<TRIPOS>MOLECULE
aminomethylphosphonic acid 
12 11 1
SMALL
USER_CHARGES
@<TRIPOS>ATOM
1	N1     0.2063    -2.3100     0.0000	N.4	1	noname	-0.0056
2	C1     1.5400    -1.5400     0.0000	C.3	1	noname	0.0522
3	P1     1.5400     0.0000     0.0000	P	1	noname	-0.1216
4	O1     1.5400     1.5400     0.0000	O.3	1	noname	-0.3465
5	O2     3.0800    -0.0000     0.0000	O.3	1	noname	-0.3761
6	O3     0.0000     0.0000     0.0000	O.2	1	noname	-0.3465
7	H1    -0.5637    -0.9763     0.0000	H	1	noname	0.2555
8	H2    -1.1274    -3.0800     0.0000	H	1	noname	0.2555
9	H3     0.9763    -3.6437     0.0000	H	1	noname	0.2555
10	H4     2.3561    -2.8460     0.0000	H	1	noname	0.0994
11	H5     3.0791    -1.5937     0.0000	H	1	noname	0.0994
12	H6     3.8500    -1.3337     0.0000	H	1	noname	0.1787
@<TRIPOS>BOND
1	1	2	1
2	2	3	1
3	3	4	1
4	3	5	1
5	3	6	2
6	1	7	1
7	1	8	1
8	1	9	1
9	2	10	1
10	2	11	1
11	5	12	1
@<TRIPOS>SUBSTRUCTURE
1	noname	1
