@<TRIPOS>MOLECULE
aminomethylphosphonic acid 
10 9 1
SMALL
USER_CHARGES
@<TRIPOS>ATOM
1	N1     0.2063    -2.3100     0.0000	N.3	1	noname	-0.3317
2	C1     1.5400    -1.5400     0.0000	C.3	1	noname	0.0345
3	P1     1.5400     0.0000     0.0000	P	1	noname	-0.3294
4	O1     1.5400     1.5400     0.0000	O.3	1	noname	-0.5631
5	O2     3.0800    -0.0000     0.0000	O.3	1	noname	-0.5631
6	O3     0.0000     0.0000     0.0000	O.2	1	noname	-0.5631
7	H1    -1.1274    -1.5400     0.0000	H	1	noname	0.1179
8	H2     0.2063    -3.8500     0.0000	H	1	noname	0.1179
9	H3     2.3561    -2.8460     0.0000	H	1	noname	0.0400
10	H4     3.0791    -1.5937     0.0000	H	1	noname	0.0400
@<TRIPOS>BOND
1	1	2	1
2	2	3	1
3	3	4	1
4	3	5	1
5	3	6	2
6	1	7	1
7	1	8	1
8	2	9	1
9	2	10	1
@<TRIPOS>SUBSTRUCTURE
1	noname	1
