@<TRIPOS>MOLECULE

18 17 1
SMALL
USER_CHARGES
@<TRIPOS>ATOM
1	O1    -1.1274    -6.1600     0.0000	O.3	1	noname	-0.2149
2	C1    -1.1274    -4.6200     0.0000	C.2	1	noname	0.1421
3	O2    -2.4610    -3.8500     0.0000	O.2	1	noname	-0.2507
4	C2     0.2063    -3.8500     0.0000	C.3	1	noname	0.0830
5	N1     0.2063    -2.3100     0.0000	N.3	1	noname	-0.2956
6	C3     1.5400    -1.5400     0.0000	C.3	1	noname	0.1044
7	P1     1.5400     0.0000     0.0000	P	1	noname	0.0209
8	O3     1.5400     1.5400     0.0000	O.3	1	noname	-0.1915
9	O4     3.0800    -0.0000     0.0000	O.3	1	noname	-0.1915
10	O5     0.0000     0.0000     0.0000	O.2	1	noname	-0.2267
11	H1    -2.4610    -6.9300     0.0000	H	1	noname	0.2213
12	H2     1.0224    -5.1560     0.0000	H	1	noname	0.0536
13	H3     1.7454    -3.9037     0.0000	H	1	noname	0.0536
14	H4    -1.1274    -1.5400     0.0000	H	1	noname	0.1235
15	H5     2.3561    -2.8460     0.0000	H	1	noname	0.0583
16	H6     3.0791    -1.5937     0.0000	H	1	noname	0.0583
17	H7     2.8737     2.3100     0.0000	H	1	noname	0.2260
18	H8     3.8500    -1.3337     0.0000	H	1	noname	0.2260
@<TRIPOS>BOND
1	1	2	1
2	2	3	2
3	2	4	1
4	4	5	1
5	5	6	1
6	6	7	1
7	7	8	1
8	7	9	1
9	7	10	2
10	1	11	1
11	4	12	1
12	4	13	1
13	5	14	1
14	6	15	1
15	6	16	1
16	8	17	1
17	9	18	1
@<TRIPOS>SUBSTRUCTURE
1	noname	1
