@<TRIPOS>MOLECULE
API1
30    32    1     0     0
SMALL
USER_CHARGES
@<TRIPOS>ATOM
1      O1      0.0021   -0.0041    0.0020 O.2      1 ZINC000003871576   -0.5700
2      C2     -0.0160    1.3284    0.0093 C.2      1 ZINC000003871576    0.3800
3      C3     -1.2265    2.0246    0.0305 C.2      1 ZINC000003871576   -0.3600
4      C4     -1.2300    3.4094    0.0374 C.2      1 ZINC000003871576    0.2700
5      O5     -2.4157    4.0695    0.0580 O.3      1 ZINC000003871576   -0.4700
6      C6     -0.0480    4.1379    0.0242 C.2      1 ZINC000003871576   -0.2600
7      C7      1.1794    3.5010    0.0031 C.2      1 ZINC000003871576    0.2200
8      O8      2.3256    4.2139   -0.0101 O.3      1 ZINC000003871576   -0.2000
9      C9      3.5240    3.6081   -0.0306 C.2      1 ZINC000003871576    0.2600
10     C10     4.7464    4.4305   -0.0444 C.ar     1 ZINC000003871576   -0.1000
11     C11     6.0036    3.8181   -0.0716 C.ar     1 ZINC000003871576   -0.0500
12     C12     7.1431    4.5907   -0.0849 C.ar     1 ZINC000003871576   -0.1500
13     C13     7.0455    5.9774   -0.0707 C.ar     1 ZINC000003871576    0.1500
14     O14     8.1717    6.7350   -0.0834 O.3      1 ZINC000003871576   -0.5000
15     C15     5.7982    6.5904   -0.0440 C.ar     1 ZINC000003871576   -0.1500
16     C16     4.6531    5.8260   -0.0360 C.ar     1 ZINC000003871576   -0.0500
17     C17     3.6363    2.2334   -0.0387 C.2      1 ZINC000003871576   -0.3300
18     C18     2.4825    1.4441   -0.0257 C.2      1 ZINC000003871576    0.3300
19     O19     2.5654    0.0954   -0.0333 O.3      1 ZINC000003871576   -0.3900
20     C20     1.2304    2.0911    0.0015 C.2      1 ZINC000003871576   -0.2900
21     H21    -2.1606    1.4826    0.0411 H        1 ZINC000003871576    0.1400
22     H22    -3.1890    3.4889    0.0664 H        1 ZINC000003871576    0.4100
23     H23    -0.0877    5.2172    0.0301 H        1 ZINC000003871576    0.1500
24     H24     6.0803    2.7409   -0.0820 H        1 ZINC000003871576    0.1400
25     H25     8.1143    4.1188   -0.1059 H        1 ZINC000003871576    0.1400
26     H26     8.4827    6.9625   -0.9703 H        1 ZINC000003871576    0.4000
27     H27     5.7272    7.6680   -0.0335 H        1 ZINC000003871576    0.1400
28     H28     3.6844    6.3032   -0.0156 H        1 ZINC000003871576    0.1500
29     H29     4.6112    1.7688   -0.0553 H        1 ZINC000003871576    0.1700
30     H30     3.4712   -0.2429   -0.0480 H        1 ZINC000003871576    0.4100
@<TRIPOS>BOND
1     1     2     2
2     2     20    1
3     2     3     1
4     3     4     2
5     3     21    1
6     4     5     1
7     4     6     1
8     5     22    1
9     6     7     2
10    6     23    1
11    7     20    1
12    7     8     1
13    8     9     1
14    9     10    1
15    9     17    2
16    10    16    ar
17    10    11    ar
18    11    12    ar
19    11    24    1
20    12    13    ar
21    12    25    1
22    13    14    1
23    13    15    ar
24    14    26    1
25    15    16    ar
26    15    27    1
27    16    28    1
28    17    18    1
29    17    29    1
30    18    19    1
31    18    20    2
32    19    30    1
@<TRIPOS>SUBSTRUCTURE
1   ZINC000003871576 1     RESIDUE    1   A     ZIN   1
