@<TRIPOS>MOLECULE
API4
27 29 1
SMALL
USER_CHARGES
@<TRIPOS>ATOM
1	O1     0.0313     7.2283     0.0000	O.2	1	noname	-0.2956
2	C1     0.0313     5.6883     0.0000	C.2	1	noname	0.0762
3	C2    -1.3024     4.9183     0.0000	C.2	1	noname	0.0681
4	C3    -1.3024     3.3783     0.0000	C.2	1	noname	0.0006
5	C4    -2.6360     2.6083     0.0000	C.2	1	noname	-0.0688
6	C5    -3.9697     3.3783     0.0000	C.2	1	noname	-0.0420
7	C6    -5.3034     2.6083     0.0000	C.2	1	noname	-0.0727
8	C7    -5.3034     1.0683     0.0000	C.2	1	noname	-0.0336
9	O2    -6.6371     0.2983     0.0000	O.3	1	noname	-0.8486
10	C8    -3.9697     0.2983     0.0000	C.2	1	noname	-0.0727
11	C9    -2.6360     1.0683     0.0000	C.2	1	noname	-0.0420
12	O3     0.0313     2.6083     0.0000	O.3	1	noname	-0.1992
13	C10     1.3650     3.3783     0.0000	C.2	1	noname	0.0212
14	C11     2.6987     2.6083     0.0000	C.2	1	noname	-0.0739
15	C12     4.0324     3.3783     0.0000	C.2	1	noname	-0.0237
16	O4     5.3660     2.6083     0.0000	O.3	1	noname	-0.8461
17	C13     4.0324     4.9183     0.0000	C.2	1	noname	-0.0952
18	C14     2.6987     5.6883     0.0000	C.2	1	noname	-0.0031
19	O5     2.6987     7.2283     0.0000	O.3	1	noname	-0.8395
20	C15     1.3650     4.9183     0.0000	C.2	1	noname	-0.0519
21	H1    -2.6360     5.6883     0.0000	H	1	noname	0.0691
22	H2    -3.9697     4.9183     0.0000	H	1	noname	0.0629
23	H3    -6.6371     3.3783     0.0000	H	1	noname	0.0614
24	H4    -3.9697    -1.2417     0.0000	H	1	noname	0.0614
25	H5    -1.3024     0.2983     0.0000	H	1	noname	0.0629
26	H6     2.6987     1.0683     0.0000	H	1	noname	0.0642
27	H7     5.3660     5.6883     0.0000	H	1	noname	0.0606
@<TRIPOS>BOND
1	1	2	2
2	2	20	1
3	2	3	1
4	3	4	2
5	3	21	1
6	4	5	1
7	4	12	1
8	5	11	ar
9	5	6	ar
10	6	7	ar
11	6	22	1
12	7	8	ar
13	7	23	1
14	8	9	1
15	8	10	ar
16	10	11	ar
17	10	24	1
18	11	25	1
19	12	13	1
20	13	20	ar
21	13	14	ar
22	14	15	ar
23	14	26	1
24	15	16	1
25	15	17	ar
26	17	18	ar
27	17	27	1
28	18	19	1
29	18	20	ar
@<TRIPOS>SUBSTRUCTURE
1	noname	1
