@<TRIPOS>MOLECULE
tetracycline
54 57 1
SMALL
USER_CHARGES
@<TRIPOS>ATOM
1	C1    10.6694     4.6200     0.0000	C.3	1	noname	-0.0129
2	N1     9.3358     3.8500     0.0000	N.3	1	noname	-0.2994
3	C2     8.0021     4.6200     0.0000	C.3	1	noname	-0.0129
4	C3     9.3358     2.3100     0.0000	C.3	1	noname	0.0727
5	C4     8.0021     1.5400     0.0000	C.3	1	noname	-0.0024
6	C5     6.6684     2.3100     0.0000	C.3	1	noname	-0.0379
7	C6     5.3347     1.5400     0.0000	C.3	1	noname	0.0231
8	C7     5.3347     0.0000     0.0000	C.2	1	noname	0.0682
9	C8     6.6684    -0.7700     0.0000	C.2	1	noname	0.0012
10	O1     6.6684    -2.3100     0.0000	O.3	1	noname	-0.2901
11	C9     8.0021     0.0000     0.0000	C.3	1	noname	0.1511
12	O2     8.0021    -1.5400     0.0000	O.3	1	noname	-1.0269
13	C10     9.3358    -0.7700     0.0000	C.2	1	noname	0.1526
14	O3     9.3358    -2.3100     0.0000	O.2	1	noname	-0.2901
15	C11    10.6694     0.0000     0.0000	C.3	1	noname	0.1507
16	C12    12.0031    -0.7700     0.0000	C.2	1	noname	0.1841
17	N2    13.3368     0.0000     0.0000	N.3	1	noname	-0.2574
18	O4    12.0031    -2.3100     0.0000	O.2	1	noname	-0.2632
19	C13    10.6694     1.5400     0.0000	C.2	1	noname	0.1590
20	O5    12.0031     2.3100     0.0000	O.2	1	noname	-0.2862
21	C14     4.0010    -0.7700     0.0000	C.2	1	noname	0.0785
22	O6     4.0010    -2.3100     0.0000	O.2	1	noname	-0.2955
23	C15     2.6674     0.0000     0.0000	C.2	1	noname	-0.0289
24	C16     1.3337    -0.7700     0.0000	C.2	1	noname	0.0003
25	O7     1.3337    -2.3100     0.0000	O.3	1	noname	-0.8402
26	C17     0.0000     0.0000     0.0000	C.2	1	noname	-0.0681
27	C18     0.0000     1.5400     0.0000	C.2	1	noname	-0.0475
28	C19     1.3337     2.3100     0.0000	C.2	1	noname	-0.0742
29	C20     2.6674     1.5400     0.0000	C.2	1	noname	-0.0095
30	C21     4.0010     2.3100     0.0000	C.3	1	noname	0.0947
31	C22     3.2781     3.6697     0.0000	C.3	1	noname	-0.0312
32	O8     4.7240     3.6697     0.0000	O.3	1	noname	-0.3847
33	H1    11.4394     3.2863     0.0000	H	1	noname	0.0394
34	H2    12.0031     5.3900     0.0000	H	1	noname	0.0394
35	H3     9.8994     5.9537     0.0000	H	1	noname	0.0394
36	H4     8.7721     5.9537     0.0000	H	1	noname	0.0394
37	H5     6.6684     5.3900     0.0000	H	1	noname	0.0394
38	H6     7.2321     3.2863     0.0000	H	1	noname	0.0394
39	H7     8.3459     3.4897     0.0000	H	1	noname	0.0552
40	H8     8.0021     3.0800     0.0000	H	1	noname	0.0327
41	H9     6.9358     3.8266     0.0000	H	1	noname	0.0277
42	H10     5.9454     3.6697     0.0000	H	1	noname	0.0277
43	H11     5.3347     3.0800     0.0000	H	1	noname	0.0387
44	H12    14.6705    -0.7700     0.0000	H	1	noname	0.1271
45	H13    13.3368     1.5400     0.0000	H	1	noname	0.1271
46	H14    -1.3337    -0.7700     0.0000	H	1	noname	0.0614
47	H15    -1.3337     2.3100     0.0000	H	1	noname	0.0622
48	H16     1.3337     3.8500     0.0000	H	1	noname	0.0626
49	H17     4.6378     4.3927     0.0000	H	1	noname	0.0263
50	H18     2.5551     5.0295     0.0000	H	1	noname	0.0263
51	H19     1.9183     2.9468     0.0000	H	1	noname	0.0263
52	H20     5.3009     5.0976     0.0000	H	1	noname	0.2113
53	H21     5.3347    -3.0800     0.0000	H	1	noname	0.2177
54	H22    12.1860     0.2674     0.0000	H	1	noname	0.0561
@<TRIPOS>BOND
1	1	2	1
2	2	3	1
3	4	2	1
4	5	4	1
5	5	6	1
6	7	6	1
7	7	8	1
8	8	9	2
9	9	10	1
10	11	9	1
11	5	11	1
12	11	12	1
13	11	13	1
14	13	14	2
15	13	15	1
16	15	16	1
17	16	17	1
18	16	18	2
19	15	19	1
20	4	19	1
21	19	20	2
22	8	21	1
23	21	22	2
24	21	23	1
25	23	24	2
26	24	25	1
27	24	26	1
28	26	27	2
29	27	28	1
30	28	29	2
31	23	29	1
32	30	29	1
33	7	30	1
34	30	31	1
35	30	32	1
36	1	33	1
37	1	34	1
38	1	35	1
39	3	36	1
40	3	37	1
41	3	38	1
42	4	39	1
43	5	40	1
44	6	41	1
45	6	42	1
46	7	43	1
47	17	44	1
48	17	45	1
49	26	46	1
50	27	47	1
51	28	48	1
52	31	49	1
53	31	50	1
54	31	51	1
55	32	52	1
56	10	53	1
57	15	54	1
@<TRIPOS>SUBSTRUCTURE
1	noname	1
